Circuit: * Z:\home\yannick\Nextcloud\HTWG\08_Bachalorarbeit\LTSpice\balancingCircuit.asc

Limiting rise time of source v7 to 0.005
Limiting fall time of source v7 to 0.005
Limiting rise time of source v6 to 0.005
Limiting fall time of source v6 to 0.005
Limiting rise time of source v5 to 0.005
Limiting fall time of source v5 to 0.005
Limiting rise time of source v4 to 0.005
Limiting fall time of source v4 to 0.005
WARNING: Less than two connections to node NC_01.  This node is used by R10.
WARNING: Less than two connections to node NC_02.  This node is used by V5.
WARNING: Less than two connections to node NC_03.  This node is used by V6.
WARNING: Less than two connections to node NC_04.  This node is used by V7.
Direct Newton iteration for .op point succeeded.

Date: Sun Oct 25 02:58:28 2020
Total elapsed time: 0.313 seconds.

tnom = 27
temp = 27
method = modified trap
totiter = 8437
traniter = 8427
tranpoints = 3079
accept = 2457
rejected = 622
matrix size = 45
fillins = 0
solver = Alternate
Matrix Compiler1: 2.51 KB object code size  0.6/0.4/[0.3]
Matrix Compiler2: 3.87 KB object code size  0.5/0.6/[0.4]

