Circuit: * Z:\home\yannick\Nextcloud\HTWG\08_Bachalorarbeit\LTSpice\Draft5.asc

Per .tran options, skipping operating point for transient analysis.
Ignoring empty pin current: Ix(u1:2)
Ignoring empty pin current: Ix(u1:4)
Ignoring empty pin current: Ix(u1:6)
Ignoring empty pin current: Ix(u1:7)
Ignoring empty pin current: Ix(u1:9)
Ignoring empty pin current: Ix(u1:13)
Ignoring empty pin current: Ix(u1:15)
Ignoring empty pin current: Ix(u1:17)
Ignoring empty pin current: Ix(u1:19)
Changing Tseed to 1e-008
Changing Tseed to 1e-010
Heightened Def Con from 0.0100648 to 0.0100648
Heightened Def Con from 0.0101357 to 0.0101357
Heightened Def Con from 0.0103087 to 0.0103087
Heightened Def Con from 0.0103201 to 0.0103201
Heightened Def Con from 0.0104001 to 0.0104001
Heightened Def Con from 0.0108931 to 0.0108931
Heightened Def Con from 0.0116049 to 0.0116049
Heightened Def Con from 0.011676 to 0.011676
Heightened Def Con from 0.0117064 to 0.0117064
Heightened Def Con from 0.0117166 to 0.0117166
Heightened Def Con from 0.0117673 to 0.0117673
Heightened Def Con from 0.0118078 to 0.0118078
Heightened Def Con from 0.0118785 to 0.0118785
Heightened Def Con from 0.0118987 to 0.0118987
Heightened Def Con from 0.0120813 to 0.0120813
Heightened Def Con from 0.0123347 to 0.0123347
Heightened Def Con from 0.0125776 to 0.0125776
Heightened Def Con from 0.0126987 to 0.0126987
Heightened Def Con from 0.0127452 to 0.0127452
Heightened Def Con from 0.0130937 to 0.0130937
Heightened Def Con from 0.0133248 to 0.0133248
Heightened Def Con from 0.013378 to 0.013378
Heightened Def Con from 0.0136342 to 0.0136342
Heightened Def Con from 0.0136845 to 0.0136845
Heightened Def Con from 0.0137822 to 0.0137822
Heightened Def Con from 0.0138555 to 0.0138555
Heightened Def Con from 0.0141555 to 0.0141555
Heightened Def Con from 0.0142121 to 0.0142121
Heightened Def Con from 0.014309 to 0.014309
Heightened Def Con from 0.0143494 to 0.0143494
Heightened Def Con from 0.0143575 to 0.0143575
Heightened Def Con from 0.0147034 to 0.0147034
Heightened Def Con from 0.0147997 to 0.0147997
Heightened Def Con from 0.0150553 to 0.0150553
Heightened Def Con from 0.0150791 to 0.0150791
Heightened Def Con from 0.015095 to 0.015095
Heightened Def Con from 0.0153166 to 0.0153166
Heightened Def Con from 0.0155676 to 0.0155676
Heightened Def Con from 0.015598 to 0.015598
Heightened Def Con from 0.0156132 to 0.0156132
Heightened Def Con from 0.0157269 to 0.0157269
Heightened Def Con from 0.0158025 to 0.0158025
Heightened Def Con from 0.0158706 to 0.0158706
Heightened Def Con from 0.0160249 to 0.0160249
Heightened Def Con from 0.0160466 to 0.0160466
Heightened Def Con from 0.0162482 to 0.0162482
Heightened Def Con from 0.0162985 to 0.0162985
Heightened Def Con from 0.0163344 to 0.0163344
Heightened Def Con from 0.0164636 to 0.0164636
Heightened Def Con from 0.0165925 to 0.0165925
Heightened Def Con from 0.016614 to 0.016614
Heightened Def Con from 0.0166784 to 0.0166784
Heightened Def Con from 0.0167783 to 0.0167783
Heightened Def Con from 0.0169642 to 0.0169642
Heightened Def Con from 0.0170737 to 0.0170737
Heightened Def Con from 0.0173051 to 0.0173051
Heightened Def Con from 0.0173179 to 0.0173179
Heightened Def Con from 0.0173244 to 0.0173244
Heightened Def Con from 0.0173757 to 0.0173757
Heightened Def Con from 0.0174206 to 0.0174206
Heightened Def Con from 0.0175424 to 0.0175424
Heightened Def Con from 0.0175744 to 0.0175744
Heightened Def Con from 0.0176768 to 0.0176768
Heightened Def Con from 0.017779 to 0.017779
Heightened Def Con from 0.0178046 to 0.0178046
Heightened Def Con from 0.017811 to 0.017811
Heightened Def Con from 0.0178684 to 0.0178684
Heightened Def Con from 0.0316314 to 0.0316314
Heightened Def Con from 0.0504556 to 0.0504556
Heightened Def Con from 0.0508754 to 0.0508754
Heightened Def Con from 0.0514178 to 0.0514178
Heightened Def Con from 0.0514671 to 0.0514671
Heightened Def Con from 0.0516291 to 0.0516291
Heightened Def Con from 0.0532289 to 0.0532289
Heightened Def Con from 0.0533542 to 0.0533542
Heightened Def Con from 0.0535919 to 0.0535919
Heightened Def Con from 0.0536747 to 0.0536747
Heightened Def Con from 0.0543506 to 0.0543506
Heightened Def Con from 0.0543937 to 0.0543937
Heightened Def Con from 0.0549055 to 0.0549055
Heightened Def Con from 0.0550348 to 0.0550348
Heightened Def Con from 0.0552047 to 0.0552047
Heightened Def Con from 0.0553126 to 0.0553126
Heightened Def Con from 0.0556039 to 0.0556039
Heightened Def Con from 0.0560273 to 0.0560273
Heightened Def Con from 0.0564113 to 0.0564113
Heightened Def Con from 0.0565343 to 0.0565343
Heightened Def Con from 0.056569 to 0.056569
Heightened Def Con from 0.05674 to 0.05674
Heightened Def Con from 0.0567737 to 0.0567737
Heightened Def Con from 0.0568017 to 0.0568017
Heightened Def Con from 0.0569779 to 0.0569779
Heightened Def Con from 0.0569942 to 0.0569942
Heightened Def Con from 0.057005 to 0.057005
Heightened Def Con from 0.0570374 to 0.0570374
Heightened Def Con from 0.0571392 to 0.0571392
Heightened Def Con from 0.0571551 to 0.0571551
Heightened Def Con from 0.0571604 to 0.0571604
Heightened Def Con from 0.0572185 to 0.0572185
Heightened Def Con from 0.0572552 to 0.0572552
Heightened Def Con from 0.0572604 to 0.0572604
Heightened Def Con from 0.0573021 to 0.0573021
Heightened Def Con from 0.0575976 to 0.0575976
Heightened Def Con from 0.0576026 to 0.0576026
Heightened Def Con from 0.0576425 to 0.0576425
Heightened Def Con from 0.0577559 to 0.0577559
Heightened Def Con from 0.0577804 to 0.0577804
Heightened Def Con from 0.0578918 to 0.0578918
Heightened Def Con from 0.0579446 to 0.0579446
Heightened Def Con from 0.0580255 to 0.0580255
Heightened Def Con from 0.0581336 to 0.0581336
Heightened Def Con from 0.0581616 to 0.0581616
Heightened Def Con from 0.0585748 to 0.0585748
Heightened Def Con from 0.0586323 to 0.0586323
Heightened Def Con from 0.0586937 to 0.0586937
Heightened Def Con from 0.0587503 to 0.0587503
Heightened Def Con from 0.0587677 to 0.0587677
Heightened Def Con from 0.058948 to 0.058948
Heightened Def Con from 0.0591038 to 0.0591038
Heightened Def Con from 0.059108 to 0.059108
Heightened Def Con from 0.0591994 to 0.0591994
Heightened Def Con from 0.0593429 to 0.0593429
Heightened Def Con from 0.059347 to 0.059347
Heightened Def Con from 0.0593511 to 0.0593511
Heightened Def Con from 0.0593673 to 0.0593673
Heightened Def Con from 0.0593957 to 0.0593957
Heightened Def Con from 0.0594923 to 0.0594923
Heightened Def Con from 0.0595642 to 0.0595642
Heightened Def Con from 0.0596039 to 0.0596039
Heightened Def Con from 0.0596316 to 0.0596316
Heightened Def Con from 0.0596749 to 0.0596749
Heightened Def Con from 0.0597063 to 0.0597063
Heightened Def Con from 0.059722 to 0.059722
Heightened Def Con from 0.0597454 to 0.0597454
Heightened Def Con from 0.0597571 to 0.0597571
Heightened Def Con from 0.0597883 to 0.0597883
Heightened Def Con from 0.0597961 to 0.0597961
Heightened Def Con from 0.0598657 to 0.0598657
Heightened Def Con from 0.060053 to 0.060053
Heightened Def Con from 0.0601284 to 0.0601284
Heightened Def Con from 0.0601995 to 0.0601995
Heightened Def Con from 0.060344 to 0.060344
Heightened Def Con from 0.0604137 to 0.0604137
Heightened Def Con from 0.060595 to 0.060595
Heightened Def Con from 0.0609276 to 0.0609276
Heightened Def Con from 0.060952 to 0.060952
Heightened Def Con from 0.0609728 to 0.0609728
Heightened Def Con from 0.0609901 to 0.0609901
Heightened Def Con from 0.061042 to 0.061042
Heightened Def Con from 0.0611621 to 0.0611621
Heightened Def Con from 0.0612165 to 0.0612165
Heightened Def Con from 0.0612335 to 0.0612335
Heightened Def Con from 0.0613112 to 0.0613112
Heightened Def Con from 0.0613449 to 0.0613449
Heightened Def Con from 0.0613751 to 0.0613751
Heightened Def Con from 0.0616955 to 0.0616955
Heightened Def Con from 0.0617832 to 0.0617832
Heightened Def Con from 0.0618284 to 0.0618284
Heightened Def Con from 0.061867 to 0.061867
Heightened Def Con from 0.0619055 to 0.0619055
Heightened Def Con from 0.0619725 to 0.0619725
Heightened Def Con from 0.0620297 to 0.0620297
Heightened Def Con from 0.0620329 to 0.0620329
Heightened Def Con from 0.062137 to 0.062137
Heightened Def Con from 0.0624012 to 0.0624012
Heightened Def Con from 0.0624503 to 0.0624503
Heightened Def Con from 0.0624564 to 0.0624564
Heightened Def Con from 0.0624625 to 0.0624625
Heightened Def Con from 0.0625631 to 0.0625631
Heightened Def Con from 0.0627141 to 0.0627141
Heightened Def Con from 0.0628603 to 0.0628603
Heightened Def Con from 0.0629755 to 0.0629755
Heightened Def Con from 0.0631624 to 0.0631624
Heightened Def Con from 0.0631827 to 0.0631827
Heightened Def Con from 0.0635117 to 0.0635117
Heightened Def Con from 0.0636635 to 0.0636635
Heightened Def Con from 0.0637109 to 0.0637109
Heightened Def Con from 0.0637276 to 0.0637276
Heightened Def Con from 0.0637443 to 0.0637443
Heightened Def Con from 0.0637831 to 0.0637831
Heightened Def Con from 0.0638081 to 0.0638081
Heightened Def Con from 0.063932 to 0.063932
Heightened Def Con from 0.0639594 to 0.0639594
Heightened Def Con from 0.0642412 to 0.0642412
Heightened Def Con from 0.0642573 to 0.0642573
Heightened Def Con from 0.0642788 to 0.0642788
Heightened Def Con from 0.0643135 to 0.0643135
Heightened Def Con from 0.0643854 to 0.0643854
Heightened Def Con from 0.0643934 to 0.0643934
Heightened Def Con from 0.0644729 to 0.0644729
Heightened Def Con from 0.0648279 to 0.0648279
Heightened Def Con from 0.0650074 to 0.0650074
Heightened Def Con from 0.0650303 to 0.0650303
Heightened Def Con from 0.0651166 to 0.0651166
Heightened Def Con from 0.0651216 to 0.0651216
Heightened Def Con from 0.0651469 to 0.0651469
Heightened Def Con from 0.0651696 to 0.0651696
Heightened Def Con from 0.0652451 to 0.0652451
Heightened Def Con from 0.0652677 to 0.0652677
Heightened Def Con from 0.0653153 to 0.0653153
Heightened Def Con from 0.0654347 to 0.0654347
Heightened Def Con from 0.0655065 to 0.0655065
Heightened Def Con from 0.0655558 to 0.0655558
Heightened Def Con from 0.0656148 to 0.0656148
Heightened Def Con from 0.0656417 to 0.0656417
Heightened Def Con from 0.0656564 to 0.0656564
Heightened Def Con from 0.0656857 to 0.0656857
Heightened Def Con from 0.065749 to 0.065749
Heightened Def Con from 0.0657709 to 0.0657709
Heightened Def Con from 0.0658073 to 0.0658073
Heightened Def Con from 0.0658122 to 0.0658122
Heightened Def Con from 0.0658218 to 0.0658218
Heightened Def Con from 0.0658991 to 0.0658991
Heightened Def Con from 0.0659112 to 0.0659112
Heightened Def Con from 0.0659136 to 0.0659136
Heightened Def Con from 0.0659448 to 0.0659448
Heightened Def Con from 0.0659568 to 0.0659568
Heightened Def Con from 0.0659664 to 0.0659664
Heightened Def Con from 0.066043 to 0.066043
Heightened Def Con from 0.0660645 to 0.0660645
Heightened Def Con from 0.0660859 to 0.0660859
Heightened Def Con from 0.0660955 to 0.0660955
Heightened Def Con from 0.0661169 to 0.0661169
Heightened Def Con from 0.066124 to 0.066124
Heightened Def Con from 0.0663177 to 0.0663177
Heightened Def Con from 0.0663529 to 0.0663529
Heightened Def Con from 0.0663599 to 0.0663599
Heightened Def Con from 0.0665556 to 0.0665556
Heightened Def Con from 0.0666387 to 0.0666387
Heightened Def Con from 0.0666526 to 0.0666526
Heightened Def Con from 0.06671 to 0.06671
Heightened Def Con from 0.0667582 to 0.0667582
Heightened Def Con from 0.0668881 to 0.0668881
Heightened Def Con from 0.0669153 to 0.0669153
Heightened Def Con from 0.0669221 to 0.0669221
Heightened Def Con from 0.0669357 to 0.0669357
Heightened Def Con from 0.0669516 to 0.0669516
Heightened Def Con from 0.0669538 to 0.0669538
Heightened Def Con from 0.0669561 to 0.0669561
Heightened Def Con from 0.0670238 to 0.0670238
Heightened Def Con from 0.0671182 to 0.0671182
Heightened Def Con from 0.0671652 to 0.0671652
Heightened Def Con from 0.06725 to 0.06725
Heightened Def Con from 0.0672878 to 0.0672878
Heightened Def Con from 0.0673011 to 0.0673011
Heightened Def Con from 0.0673033 to 0.0673033
Heightened Def Con from 0.0673343 to 0.0673343
Heightened Def Con from 0.0673587 to 0.0673587
Heightened Def Con from 0.0673653 to 0.0673653
Heightened Def Con from 0.0673697 to 0.0673697
Heightened Def Con from 0.0673808 to 0.0673808
Heightened Def Con from 0.0673962 to 0.0673962
Heightened Def Con from 0.0674271 to 0.0674271
Heightened Def Con from 0.0674403 to 0.0674403
Heightened Def Con from 0.0674996 to 0.0674996
Heightened Def Con from 0.0675237 to 0.0675237
Heightened Def Con from 0.0675347 to 0.0675347
Heightened Def Con from 0.0677069 to 0.0677069
Heightened Def Con from 0.0677307 to 0.0677307
Heightened Def Con from 0.0677394 to 0.0677394
Heightened Def Con from 0.0677437 to 0.0677437
Heightened Def Con from 0.0677675 to 0.0677675
Heightened Def Con from 0.0678042 to 0.0678042
Heightened Def Con from 0.0679074 to 0.0679074
Heightened Def Con from 0.067976 to 0.067976
Heightened Def Con from 0.0681547 to 0.0681547
Heightened Def Con from 0.0682286 to 0.0682286
Heightened Def Con from 0.0682392 to 0.0682392
Heightened Def Con from 0.0682645 to 0.0682645
Heightened Def Con from 0.0683255 to 0.0683255
Heightened Def Con from 0.0683611 to 0.0683611
Heightened Def Con from 0.0683821 to 0.0683821
Heightened Def Con from 0.0685137 to 0.0685137
Heightened Def Con from 0.0685157 to 0.0685157
Heightened Def Con from 0.0685386 to 0.0685386
Heightened Def Con from 0.0685636 to 0.0685636
Heightened Def Con from 0.0685677 to 0.0685677
Heightened Def Con from 0.0686113 to 0.0686113
Heightened Def Con from 0.0688589 to 0.0688589
Heightened Def Con from 0.068863 to 0.068863
Heightened Def Con from 0.0688732 to 0.0688733
Heightened Def Con from 0.0689572 to 0.0689572
Heightened Def Con from 0.0689837 to 0.0689837
Heightened Def Con from 0.0689939 to 0.0689939
Heightened Def Con from 0.068998 to 0.068998
Heightened Def Con from 0.0690021 to 0.0690021
Heightened Def Con from 0.069049 to 0.069049
Heightened Def Con from 0.0690653 to 0.0690653
Heightened Def Con from 0.0690836 to 0.0690836
Heightened Def Con from 0.0690856 to 0.0690856
Heightened Def Con from 0.0691587 to 0.0691587
Heightened Def Con from 0.0691789 to 0.0691789
Heightened Def Con from 0.0692416 to 0.0692416
Heightened Def Con from 0.0692638 to 0.0692638
Heightened Def Con from 0.0693062 to 0.0693062
Heightened Def Con from 0.0693182 to 0.0693182
Heightened Def Con from 0.0693424 to 0.0693424
Heightened Def Con from 0.0693826 to 0.0693826
Heightened Def Con from 0.0693866 to 0.0693866
Heightened Def Con from 0.0693906 to 0.0693906
Heightened Def Con from 0.0693926 to 0.0693926
Heightened Def Con from 0.0694047 to 0.0694047
Heightened Def Con from 0.0694087 to 0.0694087
Heightened Def Con from 0.0694227 to 0.0694227
Heightened Def Con from 0.0694788 to 0.0694788
Heightened Def Con from 0.0694928 to 0.0694928
Heightened Def Con from 0.0695527 to 0.0695527
Heightened Def Con from 0.0696045 to 0.0696045
Heightened Def Con from 0.069682 to 0.069682
Heightened Def Con from 0.0697197 to 0.0697197
Heightened Def Con from 0.0697889 to 0.0697889
Heightened Def Con from 0.0697988 to 0.0697988
Heightened Def Con from 0.0698796 to 0.0698796
Heightened Def Con from 0.0698993 to 0.0698993
Heightened Def Con from 0.0699347 to 0.0699347
Heightened Def Con from 0.0699464 to 0.0699464
Heightened Def Con from 0.0699504 to 0.0699504
Heightened Def Con from 0.0699994 to 0.0699994
Heightened Def Con from 0.070062 to 0.070062
Heightened Def Con from 0.0700893 to 0.0700893
Heightened Def Con from 0.0701089 to 0.0701089
Heightened Def Con from 0.0701147 to 0.0701147
Heightened Def Con from 0.0701264 to 0.0701264
Heightened Def Con from 0.0702042 to 0.0702042
Heightened Def Con from 0.0702373 to 0.0702373
Heightened Def Con from 0.0703206 to 0.0703206
Heightened Def Con from 0.0703554 to 0.0703554
Heightened Def Con from 0.0703882 to 0.0703882
Heightened Def Con from 0.0704345 to 0.0704345
Heightened Def Con from 0.070446 to 0.070446
Heightened Def Con from 0.0704653 to 0.0704653
Heightened Def Con from 0.0704941 to 0.0704941
Heightened Def Con from 0.0707218 to 0.0707218
Heightened Def Con from 0.0707275 to 0.0707275
Heightened Def Con from 0.0707826 to 0.0707826
Heightened Def Con from 0.0708377 to 0.0708377
Heightened Def Con from 0.070938 to 0.070938
Heightened Def Con from 0.071068 to 0.071068
Heightened Def Con from 0.071083 to 0.071083
Heightened Def Con from 0.0711018 to 0.0711018
Heightened Def Con from 0.0711318 to 0.0711318
Heightened Def Con from 0.0711656 to 0.0711656
Heightened Def Con from 0.0712516 to 0.0712516
Heightened Def Con from 0.0712684 to 0.0712684
Heightened Def Con from 0.071287 to 0.071287
Heightened Def Con from 0.0714598 to 0.0714598
Heightened Def Con from 0.0714635 to 0.0714635
Heightened Def Con from 0.0714839 to 0.0714839
Heightened Def Con from 0.0715153 to 0.0715153
Heightened Def Con from 0.0715264 to 0.0715264
Heightened Def Con from 0.071626 to 0.071626
Heightened Def Con from 0.0716775 to 0.0716775
Heightened Def Con from 0.0716849 to 0.0716849
Heightened Def Con from 0.0716959 to 0.0716959
Heightened Def Con from 0.0716977 to 0.0716977
Heightened Def Con from 0.0717656 to 0.0717656
Heightened Def Con from 0.0718588 to 0.0718588
Heightened Def Con from 0.0718953 to 0.0718953
Heightened Def Con from 0.0719681 to 0.0719681
Heightened Def Con from 0.0719917 to 0.0719917
Heightened Def Con from 0.072115 to 0.072115
Heightened Def Con from 0.0721312 to 0.0721312
Heightened Def Con from 0.0721511 to 0.0721511
Heightened Def Con from 0.0722376 to 0.0722376
Heightened Def Con from 0.0722772 to 0.0722772
Heightened Def Con from 0.0723759 to 0.0723759
Heightened Def Con from 0.072392 to 0.072392
Heightened Def Con from 0.0724493 to 0.0724493
Heightened Def Con from 0.0724796 to 0.0724796
Heightened Def Con from 0.0725135 to 0.0725135
Heightened Def Con from 0.0725989 to 0.0725989
Heightened Def Con from 0.0726025 to 0.0726025
Heightened Def Con from 0.0726078 to 0.0726078
Heightened Def Con from 0.0726114 to 0.0726114
Heightened Def Con from 0.0726149 to 0.0726149
Heightened Def Con from 0.072622 to 0.072622
Heightened Def Con from 0.0726292 to 0.0726292
Heightened Def Con from 0.0727302 to 0.0727302
Heightened Def Con from 0.0727885 to 0.0727885
Heightened Def Con from 0.0728467 to 0.0728467
Heightened Def Con from 0.0728625 to 0.0728625
Heightened Def Con from 0.072866 to 0.072866
Heightened Def Con from 0.0728924 to 0.0728924
Heightened Def Con from 0.0729012 to 0.0729012
Heightened Def Con from 0.0729434 to 0.0729434
Heightened Def Con from 0.0729837 to 0.0729837
Heightened Def Con from 0.0730275 to 0.0730275
Heightened Def Con from 0.073052 to 0.073052
Heightened Def Con from 0.0730992 to 0.0730992
Heightened Def Con from 0.0731027 to 0.0731027
Heightened Def Con from 0.0731184 to 0.0731184
Heightened Def Con from 0.0731602 to 0.0731602
Heightened Def Con from 0.0731759 to 0.0731759
Heightened Def Con from 0.0733807 to 0.0733807
Heightened Def Con from 0.0735084 to 0.0735084
Heightened Def Con from 0.0735342 to 0.0735342
Heightened Def Con from 0.0736287 to 0.0736287
Heightened Def Con from 0.0736647 to 0.0736647
Heightened Def Con from 0.0737707 to 0.0737707
Heightened Def Con from 0.0738116 to 0.0738116
Heightened Def Con from 0.0738303 to 0.0738303
Heightened Def Con from 0.0739628 to 0.0739628
Heightened Def Con from 0.0740813 to 0.0740813
Heightened Def Con from 0.0740847 to 0.0740847
Heightened Def Con from 0.0740982 to 0.0740982
Heightened Def Con from 0.0741016 to 0.0741016
Heightened Def Con from 0.0742699 to 0.0742699
Heightened Def Con from 0.0742749 to 0.0742749
Heightened Def Con from 0.0742917 to 0.0742917
Heightened Def Con from 0.0743938 to 0.0743938
Heightened Def Con from 0.0744055 to 0.0744055
Heightened Def Con from 0.0744205 to 0.0744205
Heightened Def Con from 0.0744255 to 0.0744255
Heightened Def Con from 0.0744322 to 0.0744322
Heightened Def Con from 0.0745205 to 0.0745205
Heightened Def Con from 0.0745305 to 0.0745305
Heightened Def Con from 0.0745371 to 0.0745371
Heightened Def Con from 0.0746102 to 0.0746102
Heightened Def Con from 0.0746401 to 0.0746401
Heightened Def Con from 0.0747196 to 0.0747196
Heightened Def Con from 0.0747312 to 0.0747312
Heightened Def Con from 0.0747659 to 0.0747659
Heightened Def Con from 0.0747791 to 0.0747791
Heightened Def Con from 0.0747807 to 0.0747807
Heightened Def Con from 0.0747972 to 0.0747972
Heightened Def Con from 0.0748467 to 0.0748467
Heightened Def Con from 0.0748582 to 0.0748582
Heightened Def Con from 0.0748829 to 0.0748829
Heightened Def Con from 0.0748894 to 0.0748894
Heightened Def Con from 0.0749108 to 0.0749108
Heightened Def Con from 0.0749256 to 0.0749256
Heightened Def Con from 0.0750387 to 0.0750387
Heightened Def Con from 0.0750779 to 0.0750779
Heightened Def Con from 0.0751269 to 0.0751269
Heightened Def Con from 0.0751383 to 0.0751383
Heightened Def Con from 0.0751416 to 0.0751416
Heightened Def Con from 0.0751905 to 0.0751905
Heightened Def Con from 0.0752052 to 0.0752052
Heightened Def Con from 0.0752475 to 0.0752475
Heightened Def Con from 0.0752556 to 0.0752556
Heightened Def Con from 0.0752865 to 0.0752865
Heightened Def Con from 0.0753092 to 0.0753092
Heightened Def Con from 0.0753238 to 0.0753238
Heightened Def Con from 0.0753578 to 0.0753578
Heightened Def Con from 0.0754338 to 0.0754338
Heightened Def Con from 0.0754371 to 0.0754371
Heightened Def Con from 0.0754387 to 0.0754387
Heightened Def Con from 0.0754775 to 0.0754775
Heightened Def Con from 0.0755258 to 0.0755258
Heightened Def Con from 0.0755741 to 0.0755741
Heightened Def Con from 0.0756191 to 0.0756191
Heightened Def Con from 0.0756256 to 0.0756256
Heightened Def Con from 0.0756641 to 0.0756641
Heightened Def Con from 0.075934 to 0.075934
Heightened Def Con from 0.0759436 to 0.0759436
Heightened Def Con from 0.0759452 to 0.0759452
Heightened Def Con from 0.0759515 to 0.0759515
Heightened Def Con from 0.075969 to 0.075969
Heightened Def Con from 0.0759992 to 0.0759992
Heightened Def Con from 0.0760024 to 0.0760024
Heightened Def Con from 0.0760293 to 0.0760293
Heightened Def Con from 0.0760468 to 0.0760468
Heightened Def Con from 0.0760515 to 0.0760515
Heightened Def Con from 0.0761354 to 0.0761354
Heightened Def Con from 0.0761449 to 0.0761449
Heightened Def Con from 0.0761749 to 0.0761749
Heightened Def Con from 0.0762711 to 0.0762711
Heightened Def Con from 0.0765172 to 0.0765172
Heightened Def Con from 0.0765719 to 0.0765719
Heightened Def Con from 0.0766404 to 0.0766404
Heightened Def Con from 0.076698 to 0.076698
Heightened Def Con from 0.0767166 to 0.0767166
Heightened Def Con from 0.07687 to 0.07687
Heightened Def Con from 0.0768762 to 0.0768762
Heightened Def Con from 0.0769271 to 0.0769271
Heightened Def Con from 0.0769456 to 0.0769456
Heightened Def Con from 0.0769826 to 0.0769826
Heightened Def Con from 0.0769872 to 0.0769872
Heightened Def Con from 0.0769965 to 0.0769965
Heightened Def Con from 0.0770442 to 0.0770442
Heightened Def Con from 0.0771501 to 0.0771501
Heightened Def Con from 0.0771822 to 0.0771822
Heightened Def Con from 0.0772709 to 0.0772709
Heightened Def Con from 0.0773183 to 0.0773183
Heightened Def Con from 0.0773228 to 0.0773228
Heightened Def Con from 0.0773366 to 0.0773366
Heightened Def Con from 0.0773472 to 0.0773472
Heightened Def Con from 0.0773518 to 0.0773518
Heightened Def Con from 0.0773762 to 0.0773762
Heightened Def Con from 0.0773838 to 0.0773838
Heightened Def Con from 0.0773868 to 0.0773868
Heightened Def Con from 0.0774066 to 0.0774066
Heightened Def Con from 0.0774157 to 0.0774157
Heightened Def Con from 0.0774765 to 0.0774765
Heightened Def Con from 0.0775159 to 0.0775159
Heightened Def Con from 0.0775553 to 0.0775553
Heightened Def Con from 0.0775644 to 0.0775644
Heightened Def Con from 0.0775659 to 0.0775659
Heightened Def Con from 0.077569 to 0.077569
Heightened Def Con from 0.0775992 to 0.0775992
Heightened Def Con from 0.0776037 to 0.0776037
Heightened Def Con from 0.0776264 to 0.0776264
Heightened Def Con from 0.0776943 to 0.0776943
Heightened Def Con from 0.0777139 to 0.0777139
Heightened Def Con from 0.0778222 to 0.0778222
Heightened Def Con from 0.0778643 to 0.0778643
Heightened Def Con from 0.0778778 to 0.0778778
Heightened Def Con from 0.0778943 to 0.0778943
Heightened Def Con from 0.0778988 to 0.0778988
Heightened Def Con from 0.0780589 to 0.0780589
Heightened Def Con from 0.0780723 to 0.0780723
Heightened Def Con from 0.0780842 to 0.0780842
Heightened Def Con from 0.07812 to 0.07812
Heightened Def Con from 0.0781274 to 0.0781274
Heightened Def Con from 0.078181 to 0.078181
Heightened Def Con from 0.0782256 to 0.0782256
Heightened Def Con from 0.0782449 to 0.0782449
Heightened Def Con from 0.0783279 to 0.0783279
Heightened Def Con from 0.0784181 to 0.0784181
Heightened Def Con from 0.078427 to 0.078427
Heightened Def Con from 0.0784536 to 0.0784536
Heightened Def Con from 0.0784565 to 0.0784565
Heightened Def Con from 0.0784742 to 0.0784742
Heightened Def Con from 0.0786243 to 0.0786243
Heightened Def Con from 0.0786522 to 0.0786522
Heightened Def Con from 0.0787137 to 0.0787137
Heightened Def Con from 0.0787825 to 0.0787825
Heightened Def Con from 0.0788045 to 0.0788045
Heightened Def Con from 0.0788278 to 0.0788278
Heightened Def Con from 0.0788453 to 0.0788453
Heightened Def Con from 0.0788614 to 0.0788614
Heightened Def Con from 0.0788818 to 0.0788818
Heightened Def Con from 0.078927 to 0.078927
Heightened Def Con from 0.0789473 to 0.0789473
Heightened Def Con from 0.0789561 to 0.0789561
Heightened Def Con from 0.0789764 to 0.0789764
Heightened Def Con from 0.079065 to 0.079065
Heightened Def Con from 0.0790867 to 0.0790867
Heightened Def Con from 0.0791432 to 0.0791432
Heightened Def Con from 0.079149 to 0.079149
Heightened Def Con from 0.0791591 to 0.0791591
Heightened Def Con from 0.0791649 to 0.0791649
Heightened Def Con from 0.0792184 to 0.0792184
Heightened Def Con from 0.0792299 to 0.0792299
Heightened Def Con from 0.0792328 to 0.0792328
Heightened Def Con from 0.0792718 to 0.0792718
Heightened Def Con from 0.0792747 to 0.0792747
Heightened Def Con from 0.0792891 to 0.0792891
Heightened Def Con from 0.0792963 to 0.0792963
Heightened Def Con from 0.0793841 to 0.0793841
Heightened Def Con from 0.0794587 to 0.0794587
Heightened Def Con from 0.0794888 to 0.0794888
Heightened Def Con from 0.079506 to 0.079506
Heightened Def Con from 0.079549 to 0.079549
Heightened Def Con from 0.079569 to 0.079569
Heightened Def Con from 0.0796062 to 0.0796062
Heightened Def Con from 0.0797374 to 0.0797374
Heightened Def Con from 0.0797602 to 0.0797602
Heightened Def Con from 0.0797701 to 0.0797701
Heightened Def Con from 0.0797858 to 0.0797858
Heightened Def Con from 0.0799305 to 0.0799305
Heightened Def Con from 0.0800139 to 0.0800139
Heightened Def Con from 0.0801071 to 0.0801071
Heightened Def Con from 0.0802169 to 0.0802169
Heightened Def Con from 0.0802435 to 0.0802435
Heightened Def Con from 0.0802674 to 0.0802674
Heightened Def Con from 0.0802772 to 0.0802772
Heightened Def Con from 0.0802842 to 0.0802842
Heightened Def Con from 0.0803095 to 0.0803095
Heightened Def Con from 0.0803123 to 0.0803123
Heightened Def Con from 0.0803151 to 0.0803151
Heightened Def Con from 0.0803361 to 0.0803361
Heightened Def Con from 0.0803725 to 0.0803725
Heightened Def Con from 0.0803809 to 0.0803809
Heightened Def Con from 0.0804996 to 0.0804996
Heightened Def Con from 0.0805386 to 0.0805386
Heightened Def Con from 0.0805414 to 0.0805414
Heightened Def Con from 0.0805679 to 0.0805679
Heightened Def Con from 0.0806388 to 0.0806388
Heightened Def Con from 0.0806485 to 0.0806485
Heightened Def Con from 0.0806499 to 0.0806499
Heightened Def Con from 0.0807041 to 0.0807041
Heightened Def Con from 0.0807817 to 0.0807817
Heightened Def Con from 0.0808715 to 0.0808715
Heightened Def Con from 0.0809777 to 0.0809777
Heightened Def Con from 0.0810286 to 0.0810286
Heightened Def Con from 0.0810314 to 0.0810314
Heightened Def Con from 0.0810451 to 0.0810451
Heightened Def Con from 0.0810712 to 0.0810712
Heightened Def Con from 0.0811001 to 0.0811001
Heightened Def Con from 0.0811042 to 0.0811042
Heightened Def Con from 0.0811124 to 0.0811124
Heightened Def Con from 0.081181 to 0.081181
Heightened Def Con from 0.0811919 to 0.0811919
Heightened Def Con from 0.0812084 to 0.0812084
Heightened Def Con from 0.0812125 to 0.0812125
Heightened Def Con from 0.0812234 to 0.0812234
Heightened Def Con from 0.081259 to 0.081259
Heightened Def Con from 0.0812795 to 0.0812795
Heightened Def Con from 0.0813095 to 0.0813095
Heightened Def Con from 0.08133 to 0.08133
Heightened Def Con from 0.0813395 to 0.0813395
Heightened Def Con from 0.0814322 to 0.0814322
Heightened Def Con from 0.0814431 to 0.0814431
Heightened Def Con from 0.0814471 to 0.0814471
Heightened Def Con from 0.0814485 to 0.0814485
Heightened Def Con from 0.0814662 to 0.0814662
Heightened Def Con from 0.0815056 to 0.0815056
Heightened Def Con from 0.081507 to 0.081507
Heightened Def Con from 0.0815192 to 0.0815192
Heightened Def Con from 0.0815355 to 0.0815355
Heightened Def Con from 0.081549 to 0.081549
Heightened Def Con from 0.0815518 to 0.0815518
Heightened Def Con from 0.0815531 to 0.0815531
Heightened Def Con from 0.0815762 to 0.0815762
Heightened Def Con from 0.0816899 to 0.0816899
Heightened Def Con from 0.0820197 to 0.0820197
Heightened Def Con from 0.0822229 to 0.0822229
Heightened Def Con from 0.0822376 to 0.0822376
Heightened Def Con from 0.0822469 to 0.0822469
Heightened Def Con from 0.0822549 to 0.0822549
Heightened Def Con from 0.0822576 to 0.0822576
Heightened Def Con from 0.0822602 to 0.0822602
Heightened Def Con from 0.0822629 to 0.0822629
Heightened Def Con from 0.0822682 to 0.0822682
Heightened Def Con from 0.0822789 to 0.0822789
Heightened Def Con from 0.0823361 to 0.0823361
Heightened Def Con from 0.0823641 to 0.0823641
Heightened Def Con from 0.0823853 to 0.0823853
Heightened Def Con from 0.08251 to 0.08251
Heightened Def Con from 0.0825153 to 0.0825153
Heightened Def Con from 0.0825576 to 0.0825576
Heightened Def Con from 0.0825708 to 0.0825708
Heightened Def Con from 0.0825999 to 0.0825999
Heightened Def Con from 0.082658 to 0.082658
Heightened Def Con from 0.0827213 to 0.0827213
Heightened Def Con from 0.0828042 to 0.0828042
Heightened Def Con from 0.0828318 to 0.0828318
Heightened Def Con from 0.0828567 to 0.0828567
Heightened Def Con from 0.0828594 to 0.0828594
Heightened Def Con from 0.0828764 to 0.0828764
Heightened Def Con from 0.0828777 to 0.0828777
Heightened Def Con from 0.0828908 to 0.0828908
Heightened Def Con from 0.0829053 to 0.0829053
Heightened Def Con from 0.0829276 to 0.0829276
Heightened Def Con from 0.0829289 to 0.0829289
Heightened Def Con from 0.0829538 to 0.0829538
Heightened Def Con from 0.0829551 to 0.0829551
Heightened Def Con from 0.0829708 to 0.0829708
Heightened Def Con from 0.0830009 to 0.0830009
Heightened Def Con from 0.0830192 to 0.0830192
Heightened Def Con from 0.0830532 to 0.0830532
Heightened Def Con from 0.0830558 to 0.0830558
Heightened Def Con from 0.0830649 to 0.0830649
Heightened Def Con from 0.0831511 to 0.0831511
Heightened Def Con from 0.0832526 to 0.0832526
Heightened Def Con from 0.0832552 to 0.0832552
Heightened Def Con from 0.0832656 to 0.0832656
Heightened Def Con from 0.0833007 to 0.0833007
Heightened Def Con from 0.0833033 to 0.0833033
Heightened Def Con from 0.0833123 to 0.0833123
Heightened Def Con from 0.0833331 to 0.0833331
Heightened Def Con from 0.0833604 to 0.0833604
Heightened Def Con from 0.0833785 to 0.0833785
Heightened Def Con from 0.0834251 to 0.0834251
Heightened Def Con from 0.0834459 to 0.0834459
Heightened Def Con from 0.0834549 to 0.0834549
Heightened Def Con from 0.0834653 to 0.0834653
Heightened Def Con from 0.0835493 to 0.0835493
Heightened Def Con from 0.0835712 to 0.0835712
Heightened Def Con from 0.0835931 to 0.0835931
Heightened Def Con from 0.0836408 to 0.0836408
Heightened Def Con from 0.0836498 to 0.0836498
Heightened Def Con from 0.083673 to 0.083673
Heightened Def Con from 0.0837308 to 0.0837308
Heightened Def Con from 0.0837424 to 0.0837424
Heightened Def Con from 0.0837886 to 0.0837886
Heightened Def Con from 0.0837976 to 0.0837976
Heightened Def Con from 0.0838476 to 0.0838476
Heightened Def Con from 0.0838797 to 0.0838797
Heightened Def Con from 0.0839053 to 0.0839053
Heightened Def Con from 0.0839066 to 0.0839066
Heightened Def Con from 0.0839194 to 0.0839194
Heightened Def Con from 0.0839999 to 0.0839999
Heightened Def Con from 0.0840178 to 0.0840178
Heightened Def Con from 0.0840764 to 0.0840764
Heightened Def Con from 0.0841006 to 0.0841006
Heightened Def Con from 0.0841287 to 0.0841287
Heightened Def Con from 0.0841414 to 0.0841414
Heightened Def Con from 0.0842113 to 0.0842113
Heightened Def Con from 0.0842418 to 0.0842418
Heightened Def Con from 0.0843166 to 0.0843166
Heightened Def Con from 0.084366 to 0.084366
Heightened Def Con from 0.0843951 to 0.0843951
Heightened Def Con from 0.0844002 to 0.0844002
Heightened Def Con from 0.0844179 to 0.0844179
Heightened Def Con from 0.0844192 to 0.0844192
Heightened Def Con from 0.084423 to 0.084423
Heightened Def Con from 0.0844394 to 0.0844394
Heightened Def Con from 0.0845593 to 0.0845593
Heightened Def Con from 0.0845757 to 0.0845757
Heightened Def Con from 0.0846084 to 0.0846084
Heightened Def Con from 0.0846135 to 0.0846135
Heightened Def Con from 0.0846197 to 0.0846197
Heightened Def Con from 0.0846499 to 0.0846499
Heightened Def Con from 0.084655 to 0.084655
Heightened Def Con from 0.0847165 to 0.0847165
Heightened Def Con from 0.0847178 to 0.0847178
Heightened Def Con from 0.0847329 to 0.0847329
Heightened Def Con from 0.0848244 to 0.0848244
Heightened Def Con from 0.0848519 to 0.0848519
Heightened Def Con from 0.0848682 to 0.0848682
Heightened Def Con from 0.0848832 to 0.0848832
Heightened Def Con from 0.0849843 to 0.0849843
Heightened Def Con from 0.0850118 to 0.0850118
Heightened Def Con from 0.0850778 to 0.0850778
Heightened Def Con from 0.0851089 to 0.0851089
Heightened Def Con from 0.0851674 to 0.0851674
Heightened Def Con from 0.0852022 to 0.0852022
Heightened Def Con from 0.0852506 to 0.0852506
Heightened Def Con from 0.0852655 to 0.0852655
Heightened Def Con from 0.0852679 to 0.0852679
Heightened Def Con from 0.0852952 to 0.0852952
Heightened Def Con from 0.0852964 to 0.0852964
Heightened Def Con from 0.0853385 to 0.0853385
Heightened Def Con from 0.0853422 to 0.0853422
Heightened Def Con from 0.0853435 to 0.0853435
Heightened Def Con from 0.0853472 to 0.0853472
Heightened Def Con from 0.0853546 to 0.0853546
Heightened Def Con from 0.0853781 to 0.0853781
Heightened Def Con from 0.0853818 to 0.0853818
Heightened Def Con from 0.0853917 to 0.0853917
Heightened Def Con from 0.0853942 to 0.0853942
Heightened Def Con from 0.0853979 to 0.0853979
Heightened Def Con from 0.0854288 to 0.0854288
Heightened Def Con from 0.0854424 to 0.0854424
Heightened Def Con from 0.0854473 to 0.0854473
Heightened Def Con from 0.085451 to 0.085451
Heightened Def Con from 0.0854535 to 0.0854535
Heightened Def Con from 0.085546 to 0.085546
Heightened Def Con from 0.0856432 to 0.0856432
Heightened Def Con from 0.0856984 to 0.0856984
Heightened Def Con from 0.0856996 to 0.0856996
Heightened Def Con from 0.0857046 to 0.0857046
Heightened Def Con from 0.0857058 to 0.0857058
Heightened Def Con from 0.0857095 to 0.0857095
Heightened Def Con from 0.0857659 to 0.0857659
Heightened Def Con from 0.0857953 to 0.0857953
Heightened Def Con from 0.0857977 to 0.0857977
Heightened Def Con from 0.0858283 to 0.0858283
Heightened Def Con from 0.0859103 to 0.0859103
Heightened Def Con from 0.0859115 to 0.0859115
Heightened Def Con from 0.0860591 to 0.0860591
Heightened Def Con from 0.0860737 to 0.0860737
Heightened Def Con from 0.0862365 to 0.0862365
Heightened Def Con from 0.0862765 to 0.0862765
Heightened Def Con from 0.0862959 to 0.0862959
Heightened Def Con from 0.0863165 to 0.0863165
Heightened Def Con from 0.0863383 to 0.0863383
Heightened Def Con from 0.0863407 to 0.0863407
Heightened Def Con from 0.0864519 to 0.0864519
Heightened Def Con from 0.0864555 to 0.0864555
Heightened Def Con from 0.0864603 to 0.0864603
Heightened Def Con from 0.0864664 to 0.0864664
Heightened Def Con from 0.0864724 to 0.0864724
Heightened Def Con from 0.086476 to 0.086476
Heightened Def Con from 0.0865098 to 0.0865098
Heightened Def Con from 0.0865772 to 0.0865772
Heightened Def Con from 0.0867873 to 0.0867873
Heightened Def Con from 0.0868484 to 0.0868484
Heightened Def Con from 0.0868915 to 0.0868915
Heightened Def Con from 0.0868999 to 0.0868999
Heightened Def Con from 0.0869059 to 0.0869059
Heightened Def Con from 0.0869106 to 0.0869106
Heightened Def Con from 0.0869333 to 0.0869333
Heightened Def Con from 0.0869405 to 0.0869405
Heightened Def Con from 0.0869739 to 0.0869739
Heightened Def Con from 0.0871585 to 0.0871585
Heightened Def Con from 0.0871763 to 0.0871763
Heightened Def Con from 0.0872131 to 0.0872131
Heightened Def Con from 0.0872464 to 0.0872464
Heightened Def Con from 0.0872559 to 0.0872559
Heightened Def Con from 0.0872654 to 0.0872654
Heightened Def Con from 0.0873317 to 0.0873317
Heightened Def Con from 0.0873388 to 0.0873388
Heightened Def Con from 0.0873435 to 0.0873435
Heightened Def Con from 0.0873495 to 0.0873495
Heightened Def Con from 0.0873542 to 0.0873542
Heightened Def Con from 0.087379 to 0.087379
Heightened Def Con from 0.0873802 to 0.0873802
Heightened Def Con from 0.0873956 to 0.0873956
Heightened Def Con from 0.0873991 to 0.0873991
Heightened Def Con from 0.0874464 to 0.0874464
Heightened Def Con from 0.0874594 to 0.0874594
Heightened Def Con from 0.0875054 to 0.0875054
Heightened Def Con from 0.0875066 to 0.0875066
Heightened Def Con from 0.0875372 to 0.0875372
Heightened Def Con from 0.0875584 to 0.0875584
Heightened Def Con from 0.0875608 to 0.0875608
Heightened Def Con from 0.0875655 to 0.0875655
Heightened Def Con from 0.0875761 to 0.0875761
Heightened Def Con from 0.0875902 to 0.0875902
Heightened Def Con from 0.0876055 to 0.0876055
Heightened Def Con from 0.0876091 to 0.0876091
Heightened Def Con from 0.087615 to 0.087615
Heightened Def Con from 0.0876456 to 0.0876456
Heightened Def Con from 0.0876656 to 0.0876656
Heightened Def Con from 0.0877255 to 0.0877255
Heightened Def Con from 0.0877431 to 0.0877431
Heightened Def Con from 0.0877549 to 0.0877549
Heightened Def Con from 0.0877865 to 0.0877865
Heightened Def Con from 0.0877924 to 0.0877924
Heightened Def Con from 0.0878053 to 0.0878053
Heightened Def Con from 0.087817 to 0.087817
Heightened Def Con from 0.0878217 to 0.0878217
Heightened Def Con from 0.0878486 to 0.0878486
Heightened Def Con from 0.0878627 to 0.0878627
Heightened Def Con from 0.0878908 to 0.0878908
Heightened Def Con from 0.0878978 to 0.0878978
Heightened Def Con from 0.0879165 to 0.0879165
Heightened Def Con from 0.0879644 to 0.0879644
Heightened Def Con from 0.0880041 to 0.0880041
Heightened Def Con from 0.0880543 to 0.0880543
Heightened Def Con from 0.0880718 to 0.0880718
Heightened Def Con from 0.0880846 to 0.0880846
Heightened Def Con from 0.0881056 to 0.0881056
Heightened Def Con from 0.088137 to 0.088137
Heightened Def Con from 0.0882033 to 0.0882033
Heightened Def Con from 0.0882706 to 0.0882706
Heightened Def Con from 0.0883147 to 0.0883147
Heightened Def Con from 0.0883205 to 0.0883205
Heightened Def Con from 0.0883228 to 0.0883228
Heightened Def Con from 0.0883367 to 0.0883367
Heightened Def Con from 0.0883576 to 0.0883576
Heightened Def Con from 0.0884177 to 0.0884177
Heightened Def Con from 0.0884201 to 0.0884201
Heightened Def Con from 0.0884316 to 0.0884316
Heightened Def Con from 0.0884478 to 0.0884478
Heightened Def Con from 0.0884605 to 0.0884605
Heightened Def Con from 0.0884628 to 0.0884628
Heightened Def Con from 0.0885449 to 0.0885449
Heightened Def Con from 0.0885472 to 0.0885472
Heightened Def Con from 0.0885864 to 0.0885864
Heightened Def Con from 0.0886187 to 0.0886187
Heightened Def Con from 0.0886233 to 0.0886233
Heightened Def Con from 0.0886521 to 0.0886521
Heightened Def Con from 0.0886532 to 0.0886532
Heightened Def Con from 0.0886636 to 0.0886636
Heightened Def Con from 0.0886659 to 0.0886659
Heightened Def Con from 0.0886671 to 0.0886671
Heightened Def Con from 0.088674 to 0.088674
Heightened Def Con from 0.0886878 to 0.0886878
Heightened Def Con from 0.0887027 to 0.0887027
Heightened Def Con from 0.0887085 to 0.0887085
Heightened Def Con from 0.0887418 to 0.0887418
Heightened Def Con from 0.0887866 to 0.0887866
Heightened Def Con from 0.0887901 to 0.0887901
Heightened Def Con from 0.0888015 to 0.0888015
Heightened Def Con from 0.0888314 to 0.0888314
Heightened Def Con from 0.0888417 to 0.0888417
Heightened Def Con from 0.0888578 to 0.0888578
Heightened Def Con from 0.0888635 to 0.0888635
Heightened Def Con from 0.0888853 to 0.0888853
Heightened Def Con from 0.0889002 to 0.0889002
Heightened Def Con from 0.0889151 to 0.0889151
Heightened Def Con from 0.0889254 to 0.0889254
Heightened Def Con from 0.0889334 to 0.0889334
Heightened Def Con from 0.0889448 to 0.0889448
Heightened Def Con from 0.0890123 to 0.0890123
Heightened Def Con from 0.0890511 to 0.0890511
Heightened Def Con from 0.0890979 to 0.0890979
Heightened Def Con from 0.0891048 to 0.0891048
Heightened Def Con from 0.089147 to 0.089147
Heightened Def Con from 0.0891845 to 0.0891845
Heightened Def Con from 0.0892175 to 0.0892175
Heightened Def Con from 0.0892244 to 0.0892244
Heightened Def Con from 0.0892528 to 0.0892528
Heightened Def Con from 0.0892698 to 0.0892698
Heightened Def Con from 0.089288 to 0.089288
Heightened Def Con from 0.089296 to 0.089296
Heightened Def Con from 0.0893266 to 0.0893266
Heightened Def Con from 0.0893357 to 0.0893357
Heightened Def Con from 0.0894468 to 0.0894468
Heightened Def Con from 0.0896436 to 0.0896436
Heightened Def Con from 0.0896572 to 0.0896572
Heightened Def Con from 0.0897394 to 0.0897394
Heightened Def Con from 0.0897619 to 0.0897619
Heightened Def Con from 0.0898587 to 0.0898587
Heightened Def Con from 0.0899114 to 0.0899114
Heightened Def Con from 0.0899159 to 0.0899159
Heightened Def Con from 0.0899339 to 0.0899339
Heightened Def Con from 0.0899384 to 0.0899384
Heightened Def Con from 0.0899529 to 0.0899529
Heightened Def Con from 0.0899619 to 0.0899619
Heightened Def Con from 0.0899698 to 0.0899698
Heightened Def Con from 0.0899899 to 0.0899899
Heightened Def Con from 0.0901621 to 0.0901621
Heightened Def Con from 0.0902045 to 0.0902045
Heightened Def Con from 0.090209 to 0.090209
Heightened Def Con from 0.0902246 to 0.0902246
Heightened Def Con from 0.0902558 to 0.0902558
Heightened Def Con from 0.0903604 to 0.0903604
Heightened Def Con from 0.0905403 to 0.0905403
Heightened Def Con from 0.0905525 to 0.0905525
Heightened Def Con from 0.0906333 to 0.0906333
Heightened Def Con from 0.0906941 to 0.0906941
Heightened Def Con from 0.0906975 to 0.0906975
Heightened Def Con from 0.0907195 to 0.0907195
Heightened Def Con from 0.0907372 to 0.0907372
Heightened Def Con from 0.0907703 to 0.0907703
Heightened Def Con from 0.0907824 to 0.0907824
Heightened Def Con from 0.090853 to 0.090853
Heightened Def Con from 0.0908849 to 0.0908849
Heightened Def Con from 0.0908893 to 0.0908893
Heightened Def Con from 0.0909004 to 0.0909004
Heightened Def Con from 0.0909059 to 0.0909059
Heightened Def Con from 0.0909158 to 0.0909158
Heightened Def Con from 0.0909366 to 0.0909366
Heightened Def Con from 0.0909564 to 0.0909564
Heightened Def Con from 0.0909674 to 0.0909674
Heightened Def Con from 0.0909729 to 0.0909729
Heightened Def Con from 0.0910586 to 0.0910586
Heightened Def Con from 0.0910618 to 0.0910618
Heightened Def Con from 0.0911298 to 0.0911298
Heightened Def Con from 0.0911375 to 0.0911375
Heightened Def Con from 0.0911593 to 0.0911593
Heightened Def Con from 0.0911779 to 0.0911779
Heightened Def Con from 0.0911812 to 0.0911812
Heightened Def Con from 0.0912315 to 0.0912315
Heightened Def Con from 0.0912599 to 0.0912599
Heightened Def Con from 0.0912927 to 0.0912927
Heightened Def Con from 0.0913069 to 0.0913069
Heightened Def Con from 0.0913134 to 0.0913134
Heightened Def Con from 0.0913287 to 0.0913287
Heightened Def Con from 0.0913396 to 0.0913396
Heightened Def Con from 0.0913614 to 0.0913614
Heightened Def Con from 0.0913854 to 0.0913854
Heightened Def Con from 0.0914301 to 0.0914301
Heightened Def Con from 0.091515 to 0.091515
Heightened Def Con from 0.0915672 to 0.0915672
Heightened Def Con from 0.091577 to 0.091577
Heightened Def Con from 0.0916367 to 0.0916367
Heightened Def Con from 0.0916421 to 0.0916421
Heightened Def Con from 0.0916465 to 0.0916465
Heightened Def Con from 0.0916627 to 0.0916627
Heightened Def Con from 0.0916779 to 0.0916779
Heightened Def Con from 0.0916898 to 0.0916898
Heightened Def Con from 0.0917007 to 0.0917007
Heightened Def Con from 0.0917017 to 0.0917017
Heightened Def Con from 0.0917028 to 0.0917028
Heightened Def Con from 0.091705 to 0.091705
Heightened Def Con from 0.091744 to 0.091744
Heightened Def Con from 0.0917483 to 0.0917483
Heightened Def Con from 0.0918521 to 0.0918521
Heightened Def Con from 0.0918564 to 0.0918564
Heightened Def Con from 0.0918942 to 0.0918942
Heightened Def Con from 0.0919277 to 0.0919277
Heightened Def Con from 0.0919374 to 0.0919374
Heightened Def Con from 0.0919385 to 0.0919385
Heightened Def Con from 0.0919784 to 0.0919784
Heightened Def Con from 0.0920064 to 0.0920064
Heightened Def Con from 0.0920085 to 0.0920085
Heightened Def Con from 0.0920215 to 0.0920215
Heightened Def Con from 0.0920527 to 0.0920527
Heightened Def Con from 0.0920763 to 0.0920763
Heightened Def Con from 0.0920957 to 0.0920957
Heightened Def Con from 0.0922159 to 0.0922159
Heightened Def Con from 0.0922277 to 0.0922277
Heightened Def Con from 0.092232 to 0.092232
Heightened Def Con from 0.0922685 to 0.0922685
Heightened Def Con from 0.0923156 to 0.0923156
Heightened Def Con from 0.0923252 to 0.0923252
Heightened Def Con from 0.102383 to 0.102383
Heightened Def Con from 0.103389 to 0.103389
Heightened Def Con from 0.105602 to 0.105602
Heightened Def Con from 0.107614 to 0.107614
Heightened Def Con from 0.113247 to 0.113247
Heightened Def Con from 0.121496 to 0.121496
Heightened Def Con from 0.128739 to 0.128739
Heightened Def Con from 0.12894 to 0.12894
Heightened Def Con from 0.135579 to 0.135579
Heightened Def Con from 0.135981 to 0.135981
Heightened Def Con from 0.137591 to 0.137591
Heightened Def Con from 0.143627 to 0.143627
Heightened Def Con from 0.14423 to 0.14423
Heightened Def Con from 0.147449 to 0.147449
Heightened Def Con from 0.161935 to 0.161935
Heightened Def Con from 0.165355 to 0.165355
Heightened Def Con from 0.166965 to 0.166965
Heightened Def Con from 0.173403 to 0.173403
Heightened Def Con from 0.174811 to 0.174811
Heightened Def Con from 0.181249 to 0.181249
Heightened Def Con from 0.195533 to 0.195533
Heightened Def Con from 0.196741 to 0.196741
Heightened Def Con from 0.197143 to 0.197143
Heightened Def Con from 0.207001 to 0.207001
Heightened Def Con from 0.224706 to 0.224706
Heightened Def Con from 0.229333 to 0.229333
Heightened Def Con from 0.231345 to 0.231345
Heightened Def Con from 0.234564 to 0.234564
Heightened Def Con from 0.236174 to 0.236174
Heightened Def Con from 0.253476 to 0.253476
Heightened Def Con from 0.254281 to 0.254281
Heightened Def Con from 0.2575 to 0.2575
Heightened Def Con from 0.260115 to 0.260115
Heightened Def Con from 0.263938 to 0.263938
Heightened Def Con from 0.273192 to 0.273192
Heightened Def Con from 0.294317 to 0.294317
Heightened Def Con from 0.300756 to 0.300756
Heightened Def Con from 0.305182 to 0.305182
Heightened Def Con from 0.311821 to 0.311821
Heightened Def Con from 0.312827 to 0.312827
Heightened Def Con from 0.317253 to 0.317253
Heightened Def Con from 0.318058 to 0.318058
Heightened Def Con from 0.319466 to 0.319466
Heightened Def Con from 0.321277 to 0.321277
Heightened Def Con from 0.321881 to 0.321881
Heightened Def Con from 0.327514 to 0.327514
Heightened Def Con from 0.330532 to 0.330532
Heightened Def Con from 0.338781 to 0.338781
Heightened Def Con from 0.343207 to 0.343207
Heightened Def Con from 0.347029 to 0.347029
Heightened Def Con from 0.34884 to 0.34884
Heightened Def Con from 0.353266 to 0.353266
Heightened Def Con from 0.356284 to 0.356284
Heightened Def Con from 0.357089 to 0.357089
Heightened Def Con from 0.357491 to 0.357491
Heightened Def Con from 0.358296 to 0.358296
Heightened Def Con from 0.387871 to 0.387871
Heightened Def Con from 0.404771 to 0.404771
Heightened Def Con from 0.414227 to 0.414227
Heightened Def Con from 0.416038 to 0.416038
Heightened Def Con from 0.419257 to 0.419257
Heightened Def Con from 0.420464 to 0.420464
Heightened Def Con from 0.427908 to 0.427908
Heightened Def Con from 0.442998 to 0.442998
Heightened Def Con from 0.445211 to 0.445211
Heightened Def Con from 0.450039 to 0.450039
Heightened Def Con from 0.463519 to 0.463519
Heightened Def Con from 0.479614 to 0.479614
Heightened Def Con from 0.483035 to 0.483035
Heightened Def Con from 0.491082 to 0.491082
Heightened Def Con from 0.493899 to 0.493899
Heightened Def Con from 0.508787 to 0.508787
Heightened Def Con from 0.509793 to 0.509793
Heightened Def Con from 0.524882 to 0.524882
Heightened Def Con from 0.525486 to 0.525486
Heightened Def Con from 0.528303 to 0.528303
Heightened Def Con from 0.531119 to 0.531119
Heightened Def Con from 0.55325 to 0.55325
Heightened Def Con from 0.556268 to 0.556268
Heightened Def Con from 0.562907 to 0.562907
Heightened Def Con from 0.567132 to 0.567132
Heightened Def Con from 0.570955 to 0.570955
Heightened Def Con from 0.573168 to 0.573168
Heightened Def Con from 0.57679 to 0.57679
Heightened Def Con from 0.580814 to 0.580814
Heightened Def Con from 0.589867 to 0.589867
Heightened Def Con from 0.594495 to 0.594495
Heightened Def Con from 0.595299 to 0.595299
Heightened Def Con from 0.598921 to 0.598921
Heightened Def Con from 0.607371 to 0.607371
Heightened Def Con from 0.609383 to 0.609383
Heightened Def Con from 0.624874 to 0.624874
Heightened Def Con from 0.641573 to 0.641573
Heightened Def Con from 0.645798 to 0.645798
Heightened Def Con from 0.650828 to 0.650828
Heightened Def Con from 0.652236 to 0.652236
Heightened Def Con from 0.65284 to 0.65284
Heightened Def Con from 0.661089 to 0.661089
Heightened Def Con from 0.662497 to 0.662497
Heightened Def Con from 0.664107 to 0.664107
Heightened Def Con from 0.676983 to 0.676983
Heightened Def Con from 0.680202 to 0.680202
Heightened Def Con from 0.682214 to 0.682214
Heightened Def Con from 0.683622 to 0.683622
Heightened Def Con from 0.689256 to 0.689256
Heightened Def Con from 0.690261 to 0.690261
Heightened Def Con from 0.692676 to 0.692676
Heightened Def Con from 0.696498 to 0.696498
Heightened Def Con from 0.696901 to 0.696901
Heightened Def Con from 0.702937 to 0.702937
Heightened Def Con from 0.705954 to 0.705954
Heightened Def Con from 0.70857 to 0.70857
Heightened Def Con from 0.710381 to 0.710381
Heightened Def Con from 0.716618 to 0.716618
Heightened Def Con from 0.719837 to 0.719837
Heightened Def Con from 0.724464 to 0.724464
Heightened Def Con from 0.726878 to 0.726878
Heightened Def Con from 0.754643 to 0.754643
Heightened Def Con from 0.757862 to 0.757862
Heightened Def Con from 0.763495 to 0.763495
Heightened Def Con from 0.768324 to 0.768324
Heightened Def Con from 0.77114 to 0.77114
Heightened Def Con from 0.772951 to 0.772951
Heightened Def Con from 0.776774 to 0.776774
Heightened Def Con from 0.814799 to 0.814799
Heightened Def Con from 0.816811 to 0.816811
Heightened Def Con from 0.817213 to 0.817213
Heightened Def Con from 0.820231 to 0.820231
Heightened Def Con from 0.827072 to 0.827072
Heightened Def Con from 0.827273 to 0.827273
Heightened Def Con from 0.830291 to 0.830291
Heightened Def Con from 0.831498 to 0.831498
Heightened Def Con from 0.836326 to 0.836326
Heightened Def Con from 0.840149 to 0.840149
Heightened Def Con from 0.844776 to 0.844776
Heightened Def Con from 0.849605 to 0.849605
Heightened Def Con from 0.850209 to 0.850209
Heightened Def Con from 0.854434 to 0.854434
Heightened Def Con from 0.855641 to 0.855641
Heightened Def Con from 0.86731 to 0.86731
Heightened Def Con from 0.870529 to 0.870529
Heightened Def Con from 0.874955 to 0.874955
Heightened Def Con from 0.885819 to 0.885819
Heightened Def Con from 0.886021 to 0.886021
Heightened Def Con from 0.895275 to 0.895275
Heightened Def Con from 0.903323 to 0.903323
Heightened Def Con from 0.904329 to 0.904329
Heightened Def Con from 0.913584 to 0.913584
Heightened Def Con from 0.91801 to 0.91801
Heightened Def Con from 0.921028 to 0.921028
Heightened Def Con from 0.944567 to 0.944567
Heightened Def Con from 0.955834 to 0.955834
Heightened Def Con from 0.958449 to 0.958449
Heightened Def Con from 0.964888 to 0.964888
Heightened Def Con from 0.965491 to 0.965491
Heightened Def Con from 0.966497 to 0.966497
Heightened Def Con from 0.967704 to 0.967704
Heightened Def Con from 0.976355 to 0.976355
Heightened Def Con from 0.983196 to 0.983196
Heightened Def Con from 0.991244 to 0.991244
Heightened Def Con from 0.995871 to 0.995871
Heightened Def Con from 0.996475 to 0.996475

Date: Sat Nov 07 22:23:58 2020
Total elapsed time: 821.284 seconds.

tnom = 27
temp = 27
method = modified trap
totiter = 46344910
traniter = 46344910
tranpoints = 13190320
accept = 10027152
rejected = 3164300
matrix size = 57
fillins = 14
solver = Normal
Thread vector: 11.0/8.8[3] 3.7/2.8[3] 0.8/1.9[1] 0.2/1.2[1]  2592/500
Matrix Compiler1: 2.51 KB object code size  0.6/0.4/[0.3]
Matrix Compiler2: 3.58 KB object code size  0.4/0.7/[0.2]

