Circuit: * Z:\home\yannick\Nextcloud\HTWG\08_Bachalorarbeit\LTSpice\Draft4.asc

Direct Newton iteration failed to find .op point.  (Use ".option noopiter" to skip.)
Starting Gmin stepping
Gmin = 10
Gmin = 1.07374
Gmin = 0.115292
Gmin = 0.0123794
Gmin = 0.00132923
vernier = 0.5
vernier = 0.25
vernier = 0.333333
Gmin = 0.00100682
vernier = 0.444444
Gmin = 0.00039843
vernier = 0.592592
vernier = 0.790123
Gmin = 9.11481e-005
vernier = 1
Gmin = 1.11306e-005
Gmin = 1.19514e-006
Gmin = 1.28327e-007
Gmin = 1.3779e-008
Gmin = 1.47951e-009
Gmin = 1.58861e-010
Gmin = 1.70576e-011
Gmin = 1.83154e-012
Gmin = 1.9666e-013
Gmin = 0
Gmin stepping succeeded in finding the operating point.

Heightened Def Con from 0.164027 to 0.164027

Date: Thu Nov 05 13:01:06 2020
Total elapsed time: 3.460 seconds.

tnom = 27
temp = 27
method = modified trap
totiter = 65432
traniter = 64699
tranpoints = 19641
accept = 15779
rejected = 3863
matrix size = 114
fillins = 0
solver = Alternate
Thread vector: 32.0/19.8[5] 9.2/6.5[5] 13.9/4.4[5] 0.9/2.6[1]  2592/500
Matrix Compiler1:     176 opcodes  1.1/[0.8]/0.9
Matrix Compiler2: 7.29 KB object code size  1.9/2.3/[0.7]

