Circuit: * Z:\home\yannick\Nextcloud\HTWG\08_Bachalorarbeit\LTSpice\Draft4.asc

Direct Newton iteration for .op point succeeded.

Date: Sat Oct 31 20:47:40 2020
Total elapsed time: 0.119 seconds.

tnom = 27
temp = 27
method = modified trap
totiter = 2129
traniter = 2090
tranpoints = 1046
accept = 1046
rejected = 0
matrix size = 67
fillins = 88
solver = Alternate
Thread vector: 14.7/11.8[2] 7.6/5.1[2] 2.9/2.5[2] 1.5/1.7[1]  2592/500
Matrix Compiler1: 21.28 KB object code size  4.0/3.1/[2.1]
Matrix Compiler2: 10.58 KB object code size  1.5/1.8/[1.2]

