Circuit: * Z:\home\yannick\Nextcloud\HTWG\08_Bachalorarbeit\LTSpice\Draft6.asc

ERROR: Node N007 is floating and connected to current source F2
WARNING: Node N005 is floating.
WARNING: Node U1:4 is floating.

Per .tran options, skipping operating point for transient analysis.

Date: Tue Oct 27 01:27:41 2020
Total elapsed time: 19.178 seconds.

tnom = 27
temp = 27
method = modified trap
totiter = 817387
traniter = 817387
tranpoints = 118317
accept = 88721
rejected = 29596
matrix size = 48
fillins = 68
solver = Alternate
Thread vector: 25.3/15.2[2] 8.2/5.7[2] 5.5/4.1[2] 1.2/1.8[1]  2592/500
Matrix Compiler1: 15.29 KB object code size  3.3/2.5/[1.7]
Matrix Compiler2: 7.45 KB object code size  1.1/1.4/[0.8]

