Circuit: * Z:\home\yannick\Nextcloud\HTWG\08_Bachalorarbeit\LTSpice\Draft2.asc

Limiting rise time of source v1 to 0.0001
Limiting fall time of source v1 to 0.0001
WARNING: Node N004 is floating.
WARNING: Node N003 is floating.

WARNING: Less than two connections to node N004.  This node is used by C1.
WARNING: Less than two connections to node N003.  This node is used by C1.
.OP point found by inspection.
Ignoring empty pin current: Ix(u2:1)
Ignoring empty pin current: Ix(u2:2)
Ignoring empty pin current: Ix(u2:1)
Ignoring empty pin current: Ix(u2:2)

Date: Thu Oct 22 00:35:42 2020
Total elapsed time: 0.688 seconds.

tnom = 27
temp = 27
method = modified trap
totiter = 143038
traniter = 143038
tranpoints = 71520
accept = 61022
rejected = 10498
matrix size = 6
fillins = 0
solver = Alternate
Matrix Compiler1: 204 bytes object code size  0.1/0.1/[0.1]
Matrix Compiler2: 358 bytes object code size  0.1/0.1/[0.1]

