Circuit: * Z:\home\yannick\Nextcloud\HTWG\08_Bachalorarbeit\LTSpice\MOS_Black_Reg.asc

Direct Newton iteration failed to find .op point.  (Use ".option noopiter" to skip.)
Starting Gmin stepping
Gmin = 10
Gmin = 1.07374
Gmin = 0.115292
Gmin = 0.0123794
Gmin = 0.00132923
Gmin = 0.000142725
Gmin = 1.5325e-005
Gmin = 1.6455e-006
Gmin = 1.76685e-007
Gmin = 1.89714e-008
Gmin = 2.03704e-009
Gmin = 2.18725e-010
Gmin = 2.34854e-011
Gmin = 2.52173e-012
Gmin = 2.70769e-013
Gmin = 0
Gmin stepping succeeded in finding the operating point.


Date: Tue Oct 13 17:12:50 2020
Total elapsed time: 1.156 seconds.

tnom = 27
temp = 27
method = modified trap
totiter = 115437
traniter = 114926
tranpoints = 31048
accept = 22304
rejected = 8744
matrix size = 28
fillins = 29
solver = Alternate
Matrix Compiler1: 4.71 KB object code size  0.9/0.6/[0.4]
Matrix Compiler2: 3.41 KB object code size  0.6/0.6/[0.4]

