Circuit: * Z:\home\yannick\Nextcloud\HTWG\08_Bachalorarbeit\LTSpice\optoMosfet.asc

Limiting rise time of source v4 to 1.9984e-016
Limiting fall time of source v4 to 1.9984e-016
Limiting rise time of source v1 to 0.005
Limiting fall time of source v1 to 0.005
Limiting rise time of source v3 to 0.005
Limiting fall time of source v3 to 0.005
WARNING: Node CHARGE+ is floating.
WARNING: Node N005 is floating.

WARNING: Less than two connections to node N001.  This node is used by V4.
Per .tran options, skipping operating point for transient analysis.

Date: Sat Nov 07 15:59:20 2020
Total elapsed time: 0.272 seconds.

tnom = 27
temp = 27
method = modified trap
totiter = 15717
traniter = 15717
tranpoints = 4529
accept = 3530
rejected = 999
matrix size = 40
fillins = 46
solver = Alternate
Matrix Compiler1: 7.43 KB object code size  1.9/1.2/[0.8]
Matrix Compiler2: 5.12 KB object code size  0.9/1.0/[0.5]

