Circuit: * Z:\home\yannick\Nextcloud\HTWG\08_Bachalorarbeit\LTSpice\protectionV1.asc

Direct Newton iteration for .op point succeeded.

Date: Tue Oct 13 15:21:31 2020
Total elapsed time: 0.219 seconds.

tnom = 27
temp = 27
method = modified trap
totiter = 2134
traniter = 2088
tranpoints = 1045
accept = 1045
rejected = 0
matrix size = 9
fillins = 4
solver = Alternate
Matrix Compiler1: 900 bytes object code size  0.2/0.2/[0.1]
Matrix Compiler2: off  [0.1]/0.2/0.2

