Circuit: * Z:\home\yannick\Nextcloud\HTWG\08_Bachalorarbeit\LTSpice\TestboardV1.asc

WARNING: Node NC_01 is floating.

WARNING: Less than two connections to node NC_01.  This node is used by C1.
Per .tran options, skipping operating point for transient analysis.
Changing Tseed to 1e-008

Date: Tue Oct 27 02:06:40 2020
Total elapsed time: 0.104 seconds.

tnom = 27
temp = 27
method = modified trap
totiter = 2294
traniter = 2294
tranpoints = 1108
accept = 1091
rejected = 16
matrix size = 41
fillins = 28
solver = Alternate
Thread vector: 22.6/13.9[2] 9.7/5.2[2] 3.9/3.2[2] 0.9/1.6[1]  2592/500
Matrix Compiler1: 9.58 KB object code size  2.0/1.6/[1.1]
Matrix Compiler2: 6.01 KB object code size  0.9/1.1/[0.7]

